<?xml version="1.0" encoding="UTF-8"?>

<!-- generated on 2024-09-29 00:32:16 by Eclipse SUMO netconvert Version 1.20.0
<configuration xmlns:xsi="http://www.w3.org/2001/XMLSchema-instance" xsi:noNamespaceSchemaLocation="http://sumo.dlr.de/xsd/netconvertConfiguration.xsd">

    <input>
        <sumo-net-file value="models/2/intersection.net.xml"/>
    </input>

    <output>
        <output-file value="models/2/intersection2.net.xml"/>
        <output.street-names value="true"/>
    </output>

    <processing>
        <geometry.min-radius.fix.railways value="false"/>
        <geometry.max-grade.fix value="false"/>
        <offset.disable-normalization value="true"/>
        <lefthand value="0"/>
    </processing>

    <junctions>
        <no-internal-links value="true"/>
        <no-turnarounds value="true"/>
        <junctions.corner-detail value="5"/>
        <junctions.limit-turn-speed value="5.50"/>
        <rectangular-lane-cut value="0"/>
    </junctions>

    <pedestrian>
        <walkingareas value="0"/>
    </pedestrian>

</configuration>
-->

<net version="1.20" junctionCornerDetail="5" limitTurnSpeed="5.50" xmlns:xsi="http://www.w3.org/2001/XMLSchema-instance" xsi:noNamespaceSchemaLocation="http://sumo.dlr.de/xsd/net_file.xsd">

    <location netOffset="-700171.91,-4526092.49" convBoundary="-115.00,-115.00,115.00,115.00" origBoundary="29.375301,40.861337,29.386818,40.872898" projParameter="+proj=utm +zone=35 +ellps=WGS84 +datum=WGS84 +units=m +no_defs"/>

    <type id="highway.primary" priority="12" numLanes="2" speed="27.78" disallow="tram rail_urban rail rail_electric rail_fast ship" oneway="0"/>
    <type id="highway.secondary" priority="11" numLanes="1" speed="27.78" disallow="tram rail_urban rail rail_electric rail_fast ship" oneway="0"/>
    <type id="highway.tertiary" priority="10" numLanes="1" speed="22.22" disallow="tram rail_urban rail rail_electric rail_fast ship" oneway="0"/>

    <edge id="E_1" from="E_0" to="intersection" name="E_1" priority="11" type="highway.secondary" spreadType="center" shape="-115.00,-5.00 -15.00,-5.00">
        <lane id="E_1_0" index="0" disallow="tram rail_urban rail rail_electric rail_fast ship cable_car subway" speed="25.00" length="115.81" shape="-115.00,-6.60 -15.00,-6.60"/>
        <lane id="E_1_1" index="1" disallow="tram rail_urban rail rail_electric rail_fast ship cable_car subway" speed="25.00" length="115.81" shape="-115.00,-3.40 -15.00,-3.40"/>
    </edge>
    <edge id="E_2" from="intersection" to="E_3" name="E_2" priority="11" type="highway.primary" spreadType="center" shape="15.00,-5.00 115.00,-5.00">
        <lane id="E_2_0" index="0" disallow="tram rail_urban rail rail_electric rail_fast ship cable_car subway" speed="25.00" length="115.72" shape="17.00,-5.00 115.00,-5.00"/>
    </edge>
    <edge id="N_1" from="N_0" to="intersection" name="N_1" priority="11" type="highway.tertiary" spreadType="center" shape="5.00,-115.00 5.00,-15.00">
        <lane id="N_1_0" index="0" disallow="tram rail_urban rail rail_electric rail_fast ship cable_car subway" speed="25.00" length="115.81" shape="11.40,-115.00 11.40,-15.00"/>
        <lane id="N_1_1" index="1" disallow="tram rail_urban rail rail_electric rail_fast ship cable_car subway" speed="25.00" length="115.81" shape="8.20,-115.00 8.20,-15.00"/>
        <lane id="N_1_2" index="2" disallow="tram rail_urban rail rail_electric rail_fast ship cable_car subway" speed="25.00" length="115.81" shape="5.00,-115.00 5.00,-15.00"/>
        <lane id="N_1_3" index="3" disallow="tram rail_urban rail rail_electric rail_fast ship cable_car subway" speed="25.00" length="115.81" shape="1.80,-115.00 1.80,-15.00"/>
        <lane id="N_1_4" index="4" disallow="tram rail_urban rail rail_electric rail_fast ship cable_car subway" speed="25.00" length="115.81" shape="-1.40,-115.00 -1.40,-15.00"/>
    </edge>
    <edge id="N_2" from="intersection" to="N_3" name="N_2" priority="11" type="highway.secondary" spreadType="center" shape="5.00,15.00 5.00,115.00">
        <lane id="N_2_0" index="0" disallow="tram rail_urban rail rail_electric rail_fast ship cable_car subway" speed="25.00" length="115.81" shape="5.00,15.00 5.00,115.00"/>
    </edge>
    <edge id="S_1" from="S_0" to="intersection" name="S_1" priority="11" type="highway.secondary" spreadType="center" shape="-5.00,115.00 -5.00,15.00">
        <lane id="S_1_0" index="0" disallow="tram rail_urban rail rail_electric rail_fast ship cable_car subway" speed="25.00" length="115.81" shape="-6.60,115.00 -6.60,15.00"/>
        <lane id="S_1_1" index="1" disallow="tram rail_urban rail rail_electric rail_fast ship cable_car subway" speed="25.00" length="115.81" shape="-3.40,115.00 -3.40,15.00"/>
    </edge>
    <edge id="S_2" from="intersection" to="S_3" name="S_2" priority="11" type="highway.tertiary" spreadType="center" shape="-5.00,-15.00 -5.00,-115.00">
        <lane id="S_2_0" index="0" disallow="tram rail_urban rail rail_electric rail_fast ship cable_car subway" speed="25.00" length="115.81" shape="-5.00,-15.00 -5.00,-115.00"/>
    </edge>
    <edge id="W_1" from="W_0" to="intersection" name="W_1" priority="11" type="highway.primary" spreadType="center" shape="115.00,5.00 15.00,5.00">
        <lane id="W_1_0" index="0" disallow="tram rail_urban rail rail_electric rail_fast ship cable_car subway" speed="25.00" length="115.72" shape="115.00,5.00 17.00,5.00"/>
    </edge>
    <edge id="W_2" from="intersection" to="W_3" name="W_2" priority="11" type="highway.secondary" spreadType="center" shape="-15.00,5.00 -115.00,5.00">
        <lane id="W_2_0" index="0" disallow="tram rail_urban rail rail_electric rail_fast ship cable_car subway" speed="25.00" length="115.81" shape="-15.00,5.00 -115.00,5.00"/>
    </edge>

    <tlLogic id="intersection" type="static" programID="0" offset="0">
        <phase duration="15" state="GGgGgGgGrrrrrrrrrrrr" name="Factory"/>
        <phase duration="6"  state="yyyyyyyyrrrrrrrrrrrr"/>
        <phase duration="17" state="rrrrrrrGGGrrrrrrGGrr" name="Main_road"/>
        <phase duration="6"  state="rrrrrrryyyrrrrrryyrr"/>
        <phase duration="17" state="rrrrrrrrrrrrGGGGrrrr" name="Restaurant"/>
        <phase duration="6"  state="rrrrrrrrrrrryyyyrrrr"/>
        <phase duration="17" state="rrrrrrrrrrGGrrrrrrGG" name="Main_left"/>
        <phase duration="6"  state="rrrrrrrrrryyrrrrrryy"/>
        <phase duration="17" state="rrrrrrrrrrrrrrrrGGGG" name="Hotel"/>
        <phase duration="2"  state="rrrrrrrrrrrrrrrryyyy"/>
        <phase duration="17" state="rrrrrrrGGGGGrrrrrrrr" name="Cafe"/>
        <phase duration="2"  state="rrrrrrryyyyyrrrrrrrr"/>
    </tlLogic>

    <junction id="E_0" type="dead_end" x="-115.00" y="-5.00" incLanes="" intLanes="" shape="-115.00,-1.80 -115.00,-8.20"/>
    <junction id="E_3" type="dead_end" x="115.00" y="-5.00" incLanes="E_2_0" intLanes="" shape="115.00,-6.60 115.00,-3.40"/>
    <junction id="N_0" type="dead_end" x="5.00" y="-115.00" incLanes="" intLanes="" shape="-3.00,-115.00 13.00,-115.00"/>
    <junction id="N_3" type="dead_end" x="5.00" y="115.00" incLanes="N_2_0" intLanes="" shape="6.60,115.00 3.40,115.00"/>
    <junction id="S_0" type="dead_end" x="-5.00" y="115.00" incLanes="" intLanes="" shape="-1.80,115.00 -8.20,115.00"/>
    <junction id="S_3" type="dead_end" x="-5.00" y="-115.00" incLanes="S_2_0" intLanes="" shape="-6.60,-115.00 -3.40,-115.00"/>
    <junction id="W_0" type="dead_end" x="115.00" y="5.00" incLanes="" intLanes="" shape="115.00,3.40 115.00,6.60"/>
    <junction id="W_3" type="dead_end" x="-115.00" y="5.00" incLanes="W_2_0" intLanes="" shape="-115.00,6.60 -115.00,3.40"/>
    <junction id="intersection" type="traffic_light" x="0.00" y="0.00" incLanes="S_1_0 S_1_1 W_1_0 N_1_0 N_1_1 N_1_2 N_1_3 N_1_4 E_1_0 E_1_1" intLanes="" shape="-8.20,15.00 6.60,15.00 6.89,12.43 7.76,10.33 9.20,8.70 11.22,7.53 13.82,6.83 17.00,6.60 17.00,-6.60 14.78,-7.53 14.00,-8.70 13.44,-10.33 13.11,-12.43 13.00,-15.00 -6.60,-15.00 -6.83,-12.92 -7.53,-11.22 -8.70,-9.90 -10.33,-8.96 -12.43,-8.39 -15.00,-8.20 -15.00,6.60 -12.92,6.83 -11.22,7.53 -9.90,8.70 -8.96,10.33 -8.39,12.43" fringe="inner">
        <request index="0" response="0000000010" foes="1110000110"/>
        <request index="1" response="0000000000" foes="1110000101"/>
        <request index="2" response="0011110011" foes="0011110011"/>
        <request index="3" response="0000000000" foes="1000000000"/>
        <request index="4" response="0001100000" foes="1001100100"/>
        <request index="5" response="0001000000" foes="1001010100"/>
        <request index="6" response="0000000000" foes="1000110100"/>
        <request index="7" response="0000000011" foes="1000000111"/>
        <request index="8" response="0000000011" foes="0000000011"/>
        <request index="9" response="0011111011" foes="0011111011"/>
    </junction>

    <connection from="E_1" to="S_2" fromLane="0" toLane="0" tl="intersection" linkIndex="7" dir="r" state="o"/>
    <connection from="E_1" to="E_2" fromLane="1" toLane="0" tl="intersection" linkIndex="8" dir="s" state="o"/>
    <connection from="N_1" to="E_2" fromLane="0" toLane="0" tl="intersection" linkIndex="0" dir="r" state="O"/>
    <connection from="N_1" to="N_2" fromLane="1" toLane="0" tl="intersection" linkIndex="1" dir="s" state="o"/>
    <connection from="N_1" to="N_2" fromLane="2" toLane="0" tl="intersection" linkIndex="2" dir="s" state="o"/>
    <connection from="N_1" to="N_2" fromLane="3" toLane="0" tl="intersection" linkIndex="3" dir="s" state="O"/>
    <connection from="N_1" to="W_2" fromLane="4" toLane="0" tl="intersection" linkIndex="4" dir="l" state="o"/>
    <connection from="S_1" to="S_2" fromLane="0" toLane="0" tl="intersection" linkIndex="5" dir="s" state="o"/>
    <connection from="S_1" to="S_2" fromLane="1" toLane="0" tl="intersection" linkIndex="6" dir="s" state="O"/>
    <connection from="W_1" to="W_2" fromLane="0" toLane="0" tl="intersection" linkIndex="9" dir="s" state="o"/>

</net>
