
    <configuration>
        <net-file value="intersection.net.xml"/>
        <route-files value="intersection.rou.xml"/>
    </configuration>
    