<?xml version="1.0" encoding="UTF-8"?>

<net version="1.20" junctionCornerDetail="5" limitTurnSpeed="5.50" xmlns:xsi="http://www.w3.org/2001/XMLSchema-instance" xsi:noNamespaceSchemaLocation="http://sumo.dlr.de/xsd/net_file.xsd">

    <location netOffset="-700171.91,-4526092.49" convBoundary="184.77,407.98,762.04,1291.78" origBoundary="29.375301,40.861337,29.386818,40.872898" projParameter="+proj=utm +zone=35 +ellps=WGS84 +datum=WGS84 +units=m +no_defs"/>

    <type id="highway.primary" priority="12" numLanes="2" speed="27.78" disallow="tram rail_urban rail rail_electric rail_fast ship" oneway="0"/>
    <type id="highway.secondary" priority="11" numLanes="1" speed="27.78" disallow="tram rail_urban rail rail_electric rail_fast ship" oneway="0"/>
    <type id="highway.tertiary" priority="10" numLanes="1" speed="22.22" disallow="tram rail_urban rail rail_electric rail_fast ship" oneway="0"/>

    <tlLogic id="intersection" type="static" programID="0" offset="0">
        <phase duration="15" state="GGgGgGgGrrrrrrrrrrrr" name="Factory"/>
        <phase duration="6"  state="yyyyyyyyrrrrrrrrrrrr"/>
        <phase duration="17" state="rrrrrrrGGGrrrrrrGGrr" name="Main_road"/>
        <phase duration="6"  state="rrrrrrryyyrrrrrryyrr"/>
        <phase duration="17" state="rrrrrrrrrrrrGGGGrrrr" name="Restaurant"/>
        <phase duration="6"  state="rrrrrrrrrrrryyyyrrrr"/>
        <phase duration="17" state="rrrrrrrrrrGGrrrrrrGG" name="Main_left"/>
        <phase duration="6"  state="rrrrrrrrrryyrrrrrryy"/>
        <phase duration="17" state="rrrrrrrrrrrrrrrrGGGG" name="Hotel"/>
        <phase duration="2"  state="rrrrrrrrrrrrrrrryyyy"/>
        <phase duration="17" state="rrrrrrrGGGGGrrrrrrrr" name="Cafe"/>
        <phase duration="2"  state="rrrrrrryyyyyrrrrrrrr"/>
    </tlLogic>

    <edge id=":intersection_N" function="internal">
        <lane id=":intersection_N_0" index="0" disallow="tram rail_urban rail rail_electric rail_fast ship cable_car subway" speed="25" length="30" shape="313.74,480.14 306.42,472.85 301.49,466.60 297.40,461.12 292.60,456.08"/>
        <lane id=":intersection_N_1" index="1" disallow="tram rail_urban rail rail_electric rail_fast ship cable_car subway" speed="25" length="30" shape="313.74,480.14 306.42,472.85 301.49,466.60 297.40,461.12 292.60,456.08"/>
    </edge>
    
    <edge id="N_1" from="N_0" to="intersection" name="N_1" priority="11" type="highway.secondary" spreadType="center" shape="5.00,-115.00 5.00,-15.00">
        <lane id="N_1_0" index="0" disallow="tram rail_urban rail rail_electric rail_fast ship cable_car subway" speed="25" length="100" shape="-5.00,115.00 -5.00,15.00"/>
        <lane id="N_1_1" index="1" disallow="tram rail_urban rail rail_electric rail_fast ship cable_car subway" speed="25" length="100" shape="-8.20,115.00 -8.20,15.00"/>
    </edge>
    
    <edge id="S_2" from="intersection" to="S_3" name="S_2" priority="11" type="highway.secondary" spreadType="center" shape="-5.00,-15.00 -5.00,-115.00">
        <lane id="S_2_0" index="0" disallow="tram rail_urban rail rail_electric rail_fast ship cable_car subway" speed="25" length="100" shape="-5.00,-15.00 -5.00,-115.00"/>
    </edge>
    



    <edge id=":intersection_E" function="internal">
        <lane id=":intersection_E_0" index="0" disallow="tram rail_urban rail rail_electric rail_fast ship cable_car subway" speed="25" length="30" shape="313.74,480.14 306.42,472.85 301.49,466.60 297.40,461.12 292.60,456.08"/>
        <lane id=":intersection_E_1" index="1" disallow="tram rail_urban rail rail_electric rail_fast ship cable_car subway" speed="25" length="30" shape="313.74,480.14 306.42,472.85 301.49,466.60 297.40,461.12 292.60,456.08"/>
    </edge>
    
    <edge id="E_1" from="E_0" to="intersection" name="E_1" priority="11" type="highway.tertiary" spreadType="center" shape="115.00,5.00 15.00,5.00">
        <lane id="E_1_0" index="0" disallow="tram rail_urban rail rail_electric rail_fast ship cable_car subway" speed="25" length="100" shape="5.00,-115.00 5.00,-15.00"/>
        <lane id="E_1_1" index="1" disallow="tram rail_urban rail rail_electric rail_fast ship cable_car subway" speed="25" length="100" shape="5.00,-118.20 5.00,-18.20"/>
    </edge>
    
    <edge id="W_2" from="intersection" to="W_3" name="W_2" priority="11" type="highway.tertiary" spreadType="center" shape="15.00,-5.00 115.00,-5.00">
        <lane id="W_2_0" index="0" disallow="tram rail_urban rail rail_electric rail_fast ship cable_car subway" speed="25" length="100" shape="5.00,15.00 5.00,115.00"/>
    </edge>
    



    <edge id=":intersection_W" function="internal">
        <lane id=":intersection_W_0" index="0" disallow="tram rail_urban rail rail_electric rail_fast ship cable_car subway" speed="25" length="30" shape="313.74,480.14 306.42,472.85 301.49,466.60 297.40,461.12 292.60,456.08"/>
        <lane id=":intersection_W_1" index="1" disallow="tram rail_urban rail rail_electric rail_fast ship cable_car subway" speed="25" length="30" shape="313.74,480.14 306.42,472.85 301.49,466.60 297.40,461.12 292.60,456.08"/>
        <lane id=":intersection_W_2" index="2" disallow="tram rail_urban rail rail_electric rail_fast ship cable_car subway" speed="25" length="30" shape="313.74,480.14 306.42,472.85 301.49,466.60 297.40,461.12 292.60,456.08"/>
    </edge>
    
    <edge id="W_1" from="W_0" to="intersection" name="W_1" priority="11" type="highway.primary" spreadType="center" shape="-115.00,-5.00 -15.00,-5.00">
        <lane id="W_1_0" index="0" disallow="tram rail_urban rail rail_electric rail_fast ship cable_car subway" speed="25" length="100" shape="5.00,-115.00 5.00,-15.00"/>
        <lane id="W_1_1" index="1" disallow="tram rail_urban rail rail_electric rail_fast ship cable_car subway" speed="25" length="100" shape="5.00,-111.80 5.00,-11.80"/>
        <lane id="W_1_2" index="2" disallow="tram rail_urban rail rail_electric rail_fast ship cable_car subway" speed="25" length="100" shape="5.00,-108.60 5.00,-8.60"/>
    </edge>
    
    <edge id="E_2" from="intersection" to="E_3" name="E_2" priority="11" type="highway.primary" spreadType="center" shape="-15.00,5.00 -115.00,5.00">
        <lane id="E_2_0" index="0" disallow="tram rail_urban rail rail_electric rail_fast ship cable_car subway" speed="25" length="100" shape="5.00,15.00 5.00,115.00"/>
    </edge>
    



    <junction id="N_0" type="dead_end" x="5.00" y="-115.00" incLanes="" intLanes="" shape="10.00,10.00 10.00,-10.00"/>
    <junction id="S_3" type="dead_end" x="-5.00" y="-115.00" incLanes="S_2_1" intLanes="" shape="10.00,10.00 10.00,-10.00"/>
    <junction id="E_0" type="dead_end" x="115.00" y="5.00" incLanes="" intLanes="" shape="10.00,10.00 10.00,-10.00"/>
    <junction id="W_3" type="dead_end" x="115.00" y="-5.00" incLanes="W_2_1" intLanes="" shape="10.00,10.00 10.00,-10.00"/>
    <junction id="W_0" type="dead_end" x="-115.00" y="-5.00" incLanes="" intLanes="" shape="10.00,10.00 10.00,-10.00"/>
    <junction id="E_3" type="dead_end" x="-115.00" y="5.00" incLanes="E_2_1" intLanes="" shape="10.00,10.00 10.00,-10.00"/>
    <junction id="intersection" type="traffic_light" x="0" y="0" incLanes="N_1_0 N_1_1 E_1_0 E_1_1 W_1_0 W_1_1 W_1_2" intLanes=":intersection_N_0 :intersection_N_1 :intersection_E_0 :intersection_E_1 :intersection_W_0 :intersection_W_1 :intersection_W_2" fringe="inner" shape="15.00,15.00 15.00,-15.00 -15.00,-15.00 -15.00,15.00"/>

    <connection from="N_1" to="W_2" fromLane="0" toLane="0" dir="l" state="o" via=":intersection_N_0" tl="intersection" linkIndex="0" />
    <connection from="N_1" to="E_2" fromLane="1" toLane="0" dir="r" state="o" via=":intersection_N_1" tl="intersection" linkIndex="1" />
    <connection from="E_1" to="E_2" fromLane="0" toLane="0" dir="s" state="o" via=":intersection_E_0" tl="intersection" linkIndex="2" />
    <connection from="E_1" to="E_2" fromLane="1" toLane="0" dir="s" state="o" via=":intersection_E_1" tl="intersection" linkIndex="3" />
    <connection from="W_1" to="W_2" fromLane="0" toLane="0" dir="s" state="o" via=":intersection_W_0" tl="intersection" linkIndex="4" />
    <connection from="W_1" to="W_2" fromLane="1" toLane="0" dir="s" state="o" via=":intersection_W_1" tl="intersection" linkIndex="5" />
    <connection from="W_1" to="W_2" fromLane="2" toLane="0" dir="s" state="o" via=":intersection_W_2" tl="intersection" linkIndex="6" />

    <connection from=":intersection_N" to="W_2" fromLane="0" toLane="0" dir="r" state="M" />
    <connection from=":intersection_N" to="E_2" fromLane="1" toLane="0" dir="r" state="M" />
    <connection from=":intersection_E" to="E_2" fromLane="0" toLane="0" dir="r" state="M" />
    <connection from=":intersection_E" to="E_2" fromLane="1" toLane="0" dir="r" state="M" />
    <connection from=":intersection_W" to="W_2" fromLane="0" toLane="0" dir="r" state="M" />
    <connection from=":intersection_W" to="W_2" fromLane="1" toLane="0" dir="r" state="M" />
    <connection from=":intersection_W" to="W_2" fromLane="2" toLane="0" dir="r" state="M" />

</net>
