<?xml version="1.0" encoding="UTF-8"?>

<!-- generated on 2024-09-27 22:43:27 by Eclipse SUMO netedit Version 1.20.0
<configuration xmlns:xsi="http://www.w3.org/2001/XMLSchema-instance" xsi:noNamespaceSchemaLocation="http://sumo.dlr.de/xsd/neteditConfiguration.xsd">

    <input>
        <sumo-net-file value="models/1/3.net.xml"/>
    </input>

    <output>
        <output-file value="models/1/3.net.xml"/>
    </output>

    <processing>
        <geometry.min-radius.fix.railways value="false"/>
        <geometry.max-grade.fix value="false"/>
        <offset.disable-normalization value="true"/>
        <lefthand value="0"/>
    </processing>

    <junctions>
        <no-internal-links value="true"/>
        <no-turnarounds value="true"/>
        <junctions.corner-detail value="5"/>
        <junctions.limit-turn-speed value="5.50"/>
        <rectangular-lane-cut value="0"/>
    </junctions>

    <pedestrian>
        <walkingareas value="0"/>
    </pedestrian>

</configuration>
-->

<net version="1.20" junctionCornerDetail="5" limitTurnSpeed="5.50" xmlns:xsi="http://www.w3.org/2001/XMLSchema-instance" xsi:noNamespaceSchemaLocation="http://sumo.dlr.de/xsd/net_file.xsd">

    <location netOffset="0.00,0.00" convBoundary="-100.00,-100.00,100.00,100.00" origBoundary="-100.00,-100.00,100.00,100.00" projParameter="!"/>

    <type id="highway.primary" priority="12" numLanes="2" speed="27.78" disallow="tram rail_urban rail rail_electric rail_fast ship" oneway="0"/>
    <type id="highway.secondary" priority="11" numLanes="1" speed="27.78" disallow="tram rail_urban rail rail_electric rail_fast ship" oneway="0"/>
    <type id="highway.tertiary" priority="10" numLanes="1" speed="22.22" disallow="tram rail_urban rail rail_electric rail_fast ship" oneway="0"/>

    <edge id="A1B1" from="A1" to="B1" priority="12" type="highway.primary">
        <lane id="A1B1_0" index="0" disallow="tram rail_urban rail rail_electric rail_fast ship" speed="27.78" length="100.00" shape="26.40,-4.80 100.00,-4.80"/>
        <lane id="A1B1_1" index="1" disallow="tram rail_urban rail rail_electric rail_fast ship" speed="27.78" length="100.00" shape="26.40,-1.60 100.00,-1.60"/>
    </edge>
    <edge id="A1B2" from="A1" to="B2" priority="12" type="highway.primary" shape="0.00,10.00 0.00,100.00">
        <lane id="A1B2_0" index="0" disallow="tram rail_urban rail rail_electric rail_fast ship" speed="27.78" length="100.00" shape="4.80,26.40 4.80,100.00"/>
        <lane id="A1B2_1" index="1" disallow="tram rail_urban rail rail_electric rail_fast ship" speed="27.78" length="100.00" shape="1.60,26.40 1.60,100.00"/>
    </edge>
    <edge id="A1B3" from="A1" to="B3" priority="11" type="highway.secondary">
        <lane id="A1B3_0" index="0" disallow="tram rail_urban rail rail_electric rail_fast ship" speed="27.78" length="100.00" shape="-26.40,1.60 -100.00,1.60"/>
    </edge>
    <edge id="A1B4" from="A1" to="B4" priority="11" type="highway.secondary">
        <lane id="A1B4_0" index="0" disallow="tram rail_urban rail rail_electric rail_fast ship" speed="27.78" length="100.00" shape="-1.60,-26.40 -1.60,-100.00"/>
    </edge>
    <edge id="B1A1" from="B1" to="A1" priority="12" type="highway.primary" shape="100.00,0.00 10.00,0.00">
        <lane id="B1A1_0" index="0" disallow="tram rail_urban rail rail_electric rail_fast ship" speed="27.78" length="100.00" shape="100.00,4.80 26.40,4.80"/>
        <lane id="B1A1_1" index="1" disallow="tram rail_urban rail rail_electric rail_fast ship" speed="27.78" length="100.00" shape="100.00,1.60 26.40,1.60"/>
    </edge>
    <edge id="B2A1" from="B2" to="A1" priority="12" type="highway.primary">
        <lane id="B2A1_0" index="0" disallow="tram rail_urban rail rail_electric rail_fast ship" speed="27.78" length="100.00" shape="-4.80,100.00 -4.80,26.40"/>
        <lane id="B2A1_1" index="1" disallow="tram rail_urban rail rail_electric rail_fast ship" speed="27.78" length="100.00" shape="-1.60,100.00 -1.60,26.40"/>
    </edge>
    <edge id="B3A1" from="B3" to="A1" priority="12" type="highway.primary">
        <lane id="B3A1_0" index="0" disallow="tram rail_urban rail rail_electric rail_fast ship" speed="27.78" length="100.00" shape="-100.00,-4.80 -26.40,-4.80"/>
        <lane id="B3A1_1" index="1" disallow="tram rail_urban rail rail_electric rail_fast ship" speed="27.78" length="100.00" shape="-100.00,-1.60 -26.40,-1.60"/>
    </edge>
    <edge id="B4A1" from="B4" to="A1" priority="10" type="highway.tertiary">
        <lane id="B4A1_0" index="0" disallow="tram rail_urban rail rail_electric rail_fast ship" speed="22.22" length="100.00" shape="1.60,-100.00 1.60,-26.40"/>
    </edge>

    <junction id="A1" type="unregulated" x="0.00" y="0.00" incLanes="B2A1_0 B2A1_1 B1A1_0 B1A1_1 B4A1_0 B3A1_0 B3A1_1" intLanes="" shape="-6.40,26.40 6.40,26.40 6.96,20.29 8.62,15.29 11.40,11.40 15.29,8.62 20.29,6.96 26.40,6.40 26.40,-6.40 19.31,-6.96 13.51,-8.62 9.00,-11.40 5.78,-15.29 3.84,-20.29 3.20,-26.40 -3.20,-26.40 -3.84,-20.29 -5.78,-15.29 -9.00,-11.40 -13.51,-8.62 -19.31,-6.96 -26.40,-6.40 -26.40,3.20 -20.29,3.84 -15.29,5.78 -11.40,9.00 -8.62,13.51 -6.96,19.31" radius="20.00"/>
    <junction id="B1" type="dead_end" x="100.00" y="0.00" incLanes="A1B1_0 A1B1_1" intLanes="" shape="100.00,0.00 100.00,-6.40 100.00,0.00" radius="20.00"/>
    <junction id="B2" type="dead_end" x="0.00" y="100.00" incLanes="A1B2_0 A1B2_1" intLanes="" shape="0.00,100.00 6.40,100.00 0.00,100.00" radius="20.00"/>
    <junction id="B3" type="dead_end" x="-100.00" y="0.00" incLanes="A1B3_0" intLanes="" shape="-100.00,0.00 -100.00,3.20 -100.00,0.00" radius="20.00"/>
    <junction id="B4" type="dead_end" x="0.00" y="-100.00" incLanes="A1B4_0" intLanes="" shape="0.00,-100.00 -3.20,-100.00 0.00,-100.00" radius="20.00"/>

    <connection from="B1A1" to="A1B2" fromLane="0" toLane="0" dir="r" state="M"/>
    <connection from="B1A1" to="A1B3" fromLane="0" toLane="0" dir="s" state="M"/>
    <connection from="B1A1" to="A1B4" fromLane="1" toLane="0" dir="l" state="M"/>
    <connection from="B2A1" to="A1B3" fromLane="0" toLane="0" dir="r" state="M"/>
    <connection from="B2A1" to="A1B4" fromLane="0" toLane="0" dir="s" state="M"/>
    <connection from="B2A1" to="A1B1" fromLane="1" toLane="1" dir="l" state="M"/>
    <connection from="B3A1" to="A1B4" fromLane="0" toLane="0" dir="r" state="M"/>
    <connection from="B3A1" to="A1B1" fromLane="0" toLane="0" dir="s" state="M"/>
    <connection from="B3A1" to="A1B1" fromLane="1" toLane="1" dir="s" state="M"/>
    <connection from="B3A1" to="A1B2" fromLane="1" toLane="1" dir="l" state="M"/>
    <connection from="B4A1" to="A1B1" fromLane="0" toLane="0" dir="r" state="M"/>
    <connection from="B4A1" to="A1B2" fromLane="0" toLane="0" dir="s" state="M"/>
    <connection from="B4A1" to="A1B2" fromLane="0" toLane="1" dir="s" state="M"/>
    <connection from="B4A1" to="A1B3" fromLane="0" toLane="0" dir="l" state="M"/>

</net>
