<?xml version="1.0" encoding="UTF-8"?>

<!-- generated on 2024-07-04 11:40:22 by Eclipse SUMO netedit Version 1.15.0
-->

<routes xmlns:xsi="http://www.w3.org/2001/XMLSchema-instance" xsi:noNamespaceSchemaLocation="http://sumo.dlr.de/xsd/routes_file.xsd">
    <!-- Vehicles, persons and containers (sorted by depart) -->
    <flow id="f_0" begin="0.00" from="661835697" to="31552290#0" end="3600.00" vehsPerHour="1800.00"/>
    <flow id="f_1" begin="0.00" from="31552319#1" to="661830499#0" end="3600.00" number="1800"/>
    <flow id="f_4" begin="0.00" from="661806767" to="490093036" end="3600.00" number="1800"/>
    <flow id="f_6" begin="0.00" from="661830501" to="31552341#0" end="3600.00" number="900"/>
</routes>
