<configuration>
    <net-file value="2.net.xml"/>
    <route-files value="2.rou.xml"/>
</configuration>
