<?xml version="1.0" encoding="UTF-8"?>

<!-- generated on 2024-09-29 00:39:59 by Eclipse SUMO netconvert Version 1.20.0
<configuration xmlns:xsi="http://www.w3.org/2001/XMLSchema-instance" xsi:noNamespaceSchemaLocation="http://sumo.dlr.de/xsd/netconvertConfiguration.xsd">

    <input>
        <sumo-net-file value="models/54/intersection.net.xml"/>
    </input>

    <output>
        <output-file value="models/54/intersection.net.xml"/>
        <output.street-names value="true"/>
    </output>

    <processing>
        <geometry.min-radius.fix.railways value="false"/>
        <geometry.max-grade.fix value="false"/>
        <offset.disable-normalization value="true"/>
        <lefthand value="0"/>
    </processing>

    <junctions>
        <no-internal-links value="true"/>
        <no-turnarounds value="true"/>
        <junctions.corner-detail value="5"/>
        <junctions.limit-turn-speed value="5.50"/>
        <rectangular-lane-cut value="0"/>
    </junctions>

    <pedestrian>
        <walkingareas value="0"/>
    </pedestrian>

</configuration>
-->

<net version="1.20" junctionCornerDetail="5" limitTurnSpeed="5.50" xmlns:xsi="http://www.w3.org/2001/XMLSchema-instance" xsi:noNamespaceSchemaLocation="http://sumo.dlr.de/xsd/net_file.xsd">

    <location netOffset="-700171.91,-4526092.49" convBoundary="-115.00,-5.00,115.00,115.00" origBoundary="29.375301,40.861337,29.386818,40.872898" projParameter="+proj=utm +zone=35 +ellps=WGS84 +datum=WGS84 +units=m +no_defs"/>

    <type id="highway.primary" priority="12" numLanes="2" speed="27.78" disallow="tram rail_urban rail rail_electric rail_fast ship" oneway="0"/>
    <type id="highway.tertiary" priority="10" numLanes="1" speed="22.22" disallow="tram rail_urban rail rail_electric rail_fast ship" oneway="0"/>

    <edge id="E_1" from="E_0" to="intersection" name="E_1" priority="11" type="highway.tertiary" spreadType="center" shape="-115.00,-5.00 -15.00,-5.00">
        <lane id="E_1_0" index="0" disallow="tram rail_urban rail rail_electric rail_fast ship cable_car subway" speed="25.00" length="115.81" shape="-115.00,-11.40 -15.00,-11.40"/>
        <lane id="E_1_1" index="1" disallow="tram rail_urban rail rail_electric rail_fast ship cable_car subway" speed="25.00" length="115.81" shape="-115.00,-8.20 -15.00,-8.20"/>
        <lane id="E_1_2" index="2" disallow="tram rail_urban rail rail_electric rail_fast ship cable_car subway" speed="25.00" length="115.81" shape="-115.00,-5.00 -15.00,-5.00"/>
        <lane id="E_1_3" index="3" disallow="tram rail_urban rail rail_electric rail_fast ship cable_car subway" speed="25.00" length="115.81" shape="-115.00,-1.80 -15.00,-1.80"/>
        <lane id="E_1_4" index="4" disallow="tram rail_urban rail rail_electric rail_fast ship cable_car subway" speed="25.00" length="115.81" shape="-115.00,1.40 -15.00,1.40"/>
    </edge>
    <edge id="E_2" from="intersection" to="E_3" name="E_2" priority="11" type="highway.primary" spreadType="center" shape="15.00,-5.00 115.00,-5.00">
        <lane id="E_2_0" index="0" disallow="tram rail_urban rail rail_electric rail_fast ship cable_car subway" speed="25.00" length="115.81" shape="15.00,-5.00 115.00,-5.00"/>
    </edge>
    <edge id="N_2" from="intersection" to="N_3" name="N_2" priority="11" type="highway.tertiary" spreadType="center" shape="5.00,15.00 5.00,115.00">
        <lane id="N_2_0" index="0" disallow="tram rail_urban rail rail_electric rail_fast ship cable_car subway" speed="25.00" length="115.72" shape="5.00,17.00 5.00,115.00"/>
    </edge>
    <edge id="S_1" from="S_0" to="intersection" name="S_1" priority="11" type="highway.tertiary" spreadType="center" shape="-5.00,115.00 -5.00,15.00">
        <lane id="S_1_0" index="0" disallow="tram rail_urban rail rail_electric rail_fast ship cable_car subway" speed="25.00" length="115.72" shape="-5.00,115.00 -5.00,17.00"/>
    </edge>
    <edge id="W_1" from="W_0" to="intersection" name="W_1" priority="11" type="highway.primary" spreadType="center" shape="115.00,5.00 15.00,5.00">
        <lane id="W_1_0" index="0" disallow="tram rail_urban rail rail_electric rail_fast ship cable_car subway" speed="25.00" length="115.81" shape="115.00,11.40 15.00,11.40"/>
        <lane id="W_1_1" index="1" disallow="tram rail_urban rail rail_electric rail_fast ship cable_car subway" speed="25.00" length="115.81" shape="115.00,8.20 15.00,8.20"/>
        <lane id="W_1_2" index="2" disallow="tram rail_urban rail rail_electric rail_fast ship cable_car subway" speed="25.00" length="115.81" shape="115.00,5.00 15.00,5.00"/>
        <lane id="W_1_3" index="3" disallow="tram rail_urban rail rail_electric rail_fast ship cable_car subway" speed="25.00" length="115.81" shape="115.00,1.80 15.00,1.80"/>
        <lane id="W_1_4" index="4" disallow="tram rail_urban rail rail_electric rail_fast ship cable_car subway" speed="25.00" length="115.81" shape="115.00,-1.40 15.00,-1.40"/>
    </edge>
    <edge id="W_2" from="intersection" to="W_3" name="W_2" priority="11" type="highway.tertiary" spreadType="center" shape="-15.00,5.00 -115.00,5.00">
        <lane id="W_2_0" index="0" disallow="tram rail_urban rail rail_electric rail_fast ship cable_car subway" speed="25.00" length="115.81" shape="-15.00,5.00 -115.00,5.00"/>
    </edge>

    <tlLogic id="intersection" type="static" programID="0" offset="0">
        <phase duration="15" state="GGgGgGgGrrrrrrrrrrrr" name="Factory"/>
        <phase duration="6"  state="yyyyyyyyrrrrrrrrrrrr"/>
        <phase duration="17" state="rrrrrrrGGGrrrrrrGGrr" name="Main_road"/>
        <phase duration="6"  state="rrrrrrryyyrrrrrryyrr"/>
        <phase duration="17" state="rrrrrrrrrrrrGGGGrrrr" name="Restaurant"/>
        <phase duration="6"  state="rrrrrrrrrrrryyyyrrrr"/>
        <phase duration="17" state="rrrrrrrrrrGGrrrrrrGG" name="Main_left"/>
        <phase duration="6"  state="rrrrrrrrrryyrrrrrryy"/>
        <phase duration="17" state="rrrrrrrrrrrrrrrrGGGG" name="Hotel"/>
        <phase duration="2"  state="rrrrrrrrrrrrrrrryyyy"/>
        <phase duration="17" state="rrrrrrrGGGGGrrrrrrrr" name="Cafe"/>
        <phase duration="2"  state="rrrrrrryyyyyrrrrrrrr"/>
    </tlLogic>

    <junction id="E_0" type="dead_end" x="-115.00" y="-5.00" incLanes="" intLanes="" shape="-115.00,3.00 -115.00,-13.00"/>
    <junction id="E_3" type="dead_end" x="115.00" y="-5.00" incLanes="E_2_0" intLanes="" shape="115.00,-6.60 115.00,-3.40"/>
    <junction id="N_3" type="dead_end" x="5.00" y="115.00" incLanes="N_2_0" intLanes="" shape="6.60,115.00 3.40,115.00"/>
    <junction id="S_0" type="dead_end" x="-5.00" y="115.00" incLanes="" intLanes="" shape="-3.40,115.00 -6.60,115.00"/>
    <junction id="W_0" type="dead_end" x="115.00" y="5.00" incLanes="" intLanes="" shape="115.00,-3.00 115.00,13.00"/>
    <junction id="W_3" type="dead_end" x="-115.00" y="5.00" incLanes="W_2_0" intLanes="" shape="-115.00,6.60 -115.00,3.40"/>
    <junction id="intersection" type="traffic_light" x="0.00" y="0.00" incLanes="S_1_0 W_1_0 W_1_1 W_1_2 W_1_3 W_1_4 E_1_0 E_1_1 E_1_2 E_1_3 E_1_4" intLanes="" shape="-6.60,17.00 6.60,17.00 7.53,14.78 8.70,14.00 10.33,13.44 12.43,13.11 15.00,13.00 15.00,-6.60 8.52,-7.07 3.81,-8.26 -3.81,-11.34 -8.52,-12.53 -15.00,-13.00 -15.00,6.60 -12.43,6.89 -10.33,7.76 -8.70,9.20 -7.53,11.22 -6.83,13.82" fringe="inner">
        <request index="0"  response="11111111110" foes="11111111110"/>
        <request index="1"  response="00000111100" foes="00000111101"/>
        <request index="2"  response="00000111000" foes="00000111011"/>
        <request index="3"  response="00000110000" foes="00000110111"/>
        <request index="4"  response="00000100000" foes="00000101111"/>
        <request index="5"  response="00000000000" foes="00000011111"/>
        <request index="6"  response="11110000000" foes="11110000001"/>
        <request index="7"  response="11100000000" foes="11101000001"/>
        <request index="8"  response="11000000000" foes="11011000001"/>
        <request index="9"  response="10000000000" foes="10111000001"/>
        <request index="10" response="00000000000" foes="01111000001"/>
    </junction>

    <connection from="E_1" to="E_2" fromLane="0" toLane="0" tl="intersection" linkIndex="1" dir="s" state="o"/>
    <connection from="E_1" to="E_2" fromLane="1" toLane="0" tl="intersection" linkIndex="2" dir="s" state="o"/>
    <connection from="E_1" to="E_2" fromLane="2" toLane="0" tl="intersection" linkIndex="3" dir="s" state="o"/>
    <connection from="E_1" to="E_2" fromLane="3" toLane="0" tl="intersection" linkIndex="4" dir="s" state="o"/>
    <connection from="E_1" to="E_2" fromLane="4" toLane="0" tl="intersection" linkIndex="5" dir="s" state="O"/>
    <connection from="S_1" to="E_2" fromLane="0" toLane="0" tl="intersection" linkIndex="0" dir="l" state="o"/>
    <connection from="W_1" to="W_2" fromLane="0" toLane="0" tl="intersection" linkIndex="6" dir="s" state="o"/>
    <connection from="W_1" to="W_2" fromLane="1" toLane="0" tl="intersection" linkIndex="7" dir="s" state="o"/>
    <connection from="W_1" to="W_2" fromLane="2" toLane="0" tl="intersection" linkIndex="8" dir="s" state="o"/>
    <connection from="W_1" to="W_2" fromLane="3" toLane="0" tl="intersection" linkIndex="9" dir="s" state="o"/>
    <connection from="W_1" to="W_2" fromLane="4" toLane="0" tl="intersection" linkIndex="10" dir="s" state="O"/>

</net>
