<?xml version="1.0" encoding="UTF-8"?>

<!-- generated on 2024-10-02 20:12:23 by Eclipse SUMO netconvert Version 1.20.0
<configuration xmlns:xsi="http://www.w3.org/2001/XMLSchema-instance" xsi:noNamespaceSchemaLocation="http://sumo.dlr.de/xsd/netconvertConfiguration.xsd">

    <input>
        <sumo-net-file value="intersections/4/intersection.net.xml"/>
    </input>

    <output>
        <output-file value="intersections/4/intersection.net.xml"/>
        <output.street-names value="true"/>
    </output>

    <processing>
        <geometry.min-radius.fix.railways value="false"/>
        <geometry.max-grade.fix value="false"/>
        <offset.disable-normalization value="true"/>
        <lefthand value="0"/>
    </processing>

    <junctions>
        <no-internal-links value="false"/>
        <no-turnarounds value="true"/>
        <junctions.corner-detail value="5"/>
        <junctions.limit-turn-speed value="5.50"/>
        <rectangular-lane-cut value="0"/>
    </junctions>

    <pedestrian>
        <walkingareas value="0"/>
    </pedestrian>

</configuration>
-->

<net version="1.20" junctionCornerDetail="5" limitTurnSpeed="5.50" xmlns:xsi="http://www.w3.org/2001/XMLSchema-instance" xsi:noNamespaceSchemaLocation="http://sumo.dlr.de/xsd/net_file.xsd">

    <location netOffset="-700171.91,-4526092.49" convBoundary="-165.00,-165.00,165.00,165.00" origBoundary="29.375301,40.861337,29.386818,40.872898" projParameter="+proj=utm +zone=35 +ellps=WGS84 +datum=WGS84 +units=m +no_defs"/>

    <type id="highway.primary" priority="12" numLanes="2" speed="27.78" disallow="tram rail_urban rail rail_electric rail_fast ship" oneway="0"/>
    <type id="highway.tertiary" priority="10" numLanes="1" speed="22.22" disallow="tram rail_urban rail rail_electric rail_fast ship" oneway="0"/>

    <edge id=":intersection_0" function="internal">
        <lane id=":intersection_0_0" index="0" disallow="tram rail_urban rail rail_electric rail_fast ship cable_car subway" speed="7.86" length="13.64" shape="-8.20,15.00 -8.62,10.62 -9.90,7.50 -12.02,5.62 -15.00,5.00"/>
    </edge>
    <edge id=":intersection_1" function="internal">
        <lane id=":intersection_1_0" index="0" disallow="tram rail_urban rail rail_electric rail_fast ship cable_car subway" speed="27.78" length="30.00" shape="-5.00,15.00 -5.00,-15.00"/>
    </edge>
    <edge id=":intersection_2" function="internal">
        <lane id=":intersection_2_0" index="0" disallow="tram rail_urban rail rail_electric rail_fast ship cable_car subway" speed="11.37" length="29.72" shape="-1.80,15.00 -0.75,6.25 2.40,0.00 7.65,-3.75 15.00,-5.00"/>
    </edge>
    <edge id=":intersection_3" function="internal">
        <lane id=":intersection_3_0" index="0" disallow="tram rail_urban rail rail_electric rail_fast ship cable_car subway" speed="8.49" length="16.13" shape="15.00,5.00 10.62,5.62 7.50,7.50 5.62,10.62 5.00,15.00"/>
    </edge>
    <edge id=":intersection_4" function="internal">
        <lane id=":intersection_4_0" index="0" disallow="tram rail_urban rail rail_electric rail_fast ship cable_car subway" speed="25.00" length="30.00" shape="15.00,5.00 -15.00,5.00"/>
    </edge>
    <edge id=":intersection_5" function="internal">
        <lane id=":intersection_5_0" index="0" disallow="tram rail_urban rail rail_electric rail_fast ship cable_car subway" speed="11.48" length="30.34" shape="15.00,5.00 8.13,3.12 1.67,-1.67 -3.12,-8.13 -5.00,-15.00"/>
    </edge>
    <edge id=":intersection_6" function="internal">
        <lane id=":intersection_6_0" index="0" disallow="tram rail_urban rail rail_electric rail_fast ship cable_car subway" speed="7.86" length="13.64" shape="8.20,-15.00 8.62,-10.62 9.90,-7.50 12.02,-5.62 15.00,-5.00"/>
    </edge>
    <edge id=":intersection_7" function="internal">
        <lane id=":intersection_7_0" index="0" disallow="tram rail_urban rail rail_electric rail_fast ship cable_car subway" speed="27.78" length="30.00" shape="5.00,-15.00 5.00,15.00"/>
    </edge>
    <edge id=":intersection_8" function="internal">
        <lane id=":intersection_8_0" index="0" disallow="tram rail_urban rail rail_electric rail_fast ship cable_car subway" speed="11.37" length="15.64" shape="1.80,-15.00 0.75,-6.25 -2.32,-0.16"/>
    </edge>
    <edge id=":intersection_12" function="internal">
        <lane id=":intersection_12_0" index="0" disallow="tram rail_urban rail rail_electric rail_fast ship cable_car subway" speed="11.37" length="14.08" shape="-2.32,-0.16 -2.40,-0.00 -7.65,3.75 -15.00,5.00"/>
    </edge>
    <edge id=":intersection_9" function="internal">
        <lane id=":intersection_9_0" index="0" disallow="tram rail_urban rail rail_electric rail_fast ship cable_car subway" speed="8.18" length="14.86" shape="-15.00,-6.60 -10.62,-7.13 -7.50,-8.70 -5.62,-11.32 -5.00,-15.00"/>
    </edge>
    <edge id=":intersection_10" function="internal">
        <lane id=":intersection_10_0" index="0" disallow="tram rail_urban rail rail_electric rail_fast ship cable_car subway" speed="25.00" length="30.04" shape="-15.00,-3.40 15.00,-5.00"/>
    </edge>
    <edge id=":intersection_11" function="internal">
        <lane id=":intersection_11_0" index="0" disallow="tram rail_urban rail rail_electric rail_fast ship cable_car subway" speed="11.29" length="29.28" shape="-15.00,-3.40 -8.13,-1.77 -1.67,2.47 3.12,8.38 5.00,15.00"/>
    </edge>

    <edge id="E_1" from="E_0" to="intersection" name="E_1" priority="11" type="highway.primary" spreadType="center" shape="-165.00,-5.00 -15.00,-5.00">
        <lane id="E_1_0" index="0" disallow="tram rail_urban rail rail_electric rail_fast ship cable_car subway" speed="27.78" length="150.00" shape="-165.00,-6.60 -15.00,-6.60"/>
        <lane id="E_1_1" index="1" disallow="tram rail_urban rail rail_electric rail_fast ship cable_car subway" speed="27.78" length="150.00" shape="-165.00,-3.40 -15.00,-3.40"/>
    </edge>
    <edge id="E_2" from="intersection" to="E_3" name="E_2" priority="11" type="highway.tertiary" spreadType="center" shape="15.00,-5.00 165.00,-5.00">
        <lane id="E_2_0" index="0" disallow="tram rail_urban rail rail_electric rail_fast ship cable_car subway" speed="22.22" length="150.00" shape="15.00,-5.00 165.00,-5.00"/>
    </edge>
    <edge id="N_1" from="N_0" to="intersection" name="N_1" priority="11" type="highway.primary" spreadType="center" shape="5.00,-165.00 5.00,-15.00">
        <lane id="N_1_0" index="0" disallow="tram rail_urban rail rail_electric rail_fast ship cable_car subway" speed="27.78" length="150.00" shape="8.20,-165.00 8.20,-15.00"/>
        <lane id="N_1_1" index="1" disallow="tram rail_urban rail rail_electric rail_fast ship cable_car subway" speed="27.78" length="150.00" shape="5.00,-165.00 5.00,-15.00"/>
        <lane id="N_1_2" index="2" disallow="tram rail_urban rail rail_electric rail_fast ship cable_car subway" speed="27.78" length="150.00" shape="1.80,-165.00 1.80,-15.00"/>
    </edge>
    <edge id="N_2" from="intersection" to="N_3" name="N_2" priority="11" type="highway.primary" spreadType="center" shape="5.00,15.00 5.00,165.00">
        <lane id="N_2_0" index="0" disallow="tram rail_urban rail rail_electric rail_fast ship cable_car subway" speed="27.78" length="150.00" shape="5.00,15.00 5.00,165.00"/>
    </edge>
    <edge id="S_1" from="S_0" to="intersection" name="S_1" priority="11" type="highway.primary" spreadType="center" shape="-5.00,165.00 -5.00,15.00">
        <lane id="S_1_0" index="0" disallow="tram rail_urban rail rail_electric rail_fast ship cable_car subway" speed="27.78" length="150.00" shape="-8.20,165.00 -8.20,15.00"/>
        <lane id="S_1_1" index="1" disallow="tram rail_urban rail rail_electric rail_fast ship cable_car subway" speed="27.78" length="150.00" shape="-5.00,165.00 -5.00,15.00"/>
        <lane id="S_1_2" index="2" disallow="tram rail_urban rail rail_electric rail_fast ship cable_car subway" speed="27.78" length="150.00" shape="-1.80,165.00 -1.80,15.00"/>
    </edge>
    <edge id="S_2" from="intersection" to="S_3" name="S_2" priority="11" type="highway.primary" spreadType="center" shape="-5.00,-15.00 -5.00,-165.00">
        <lane id="S_2_0" index="0" disallow="tram rail_urban rail rail_electric rail_fast ship cable_car subway" speed="27.78" length="150.00" shape="-5.00,-15.00 -5.00,-165.00"/>
    </edge>
    <edge id="W_1" from="W_0" to="intersection" name="W_1" priority="11" type="highway.tertiary" spreadType="center" shape="165.00,5.00 15.00,5.00">
        <lane id="W_1_0" index="0" disallow="tram rail_urban rail rail_electric rail_fast ship cable_car subway" speed="22.22" length="150.00" shape="165.00,5.00 15.00,5.00"/>
    </edge>
    <edge id="W_2" from="intersection" to="W_3" name="W_2" priority="11" type="highway.primary" spreadType="center" shape="-15.00,5.00 -165.00,5.00">
        <lane id="W_2_0" index="0" disallow="tram rail_urban rail rail_electric rail_fast ship cable_car subway" speed="27.78" length="150.00" shape="-15.00,5.00 -165.00,5.00"/>
    </edge>

    <tlLogic id="intersection" type="static" programID="0" offset="0">
        <phase duration="15" state="GGgGgGgGrrrrrrrrrrrr" name="Factory"/>
        <phase duration="6"  state="yyyyyyyyrrrrrrrrrrrr"/>
        <phase duration="17" state="rrrrrrrGGGrrrrrrGGrr" name="Main_road"/>
        <phase duration="6"  state="rrrrrrryyyrrrrrryyrr"/>
        <phase duration="17" state="rrrrrrrrrrrrGGGGrrrr" name="Restaurant"/>
        <phase duration="6"  state="rrrrrrrrrrrryyyyrrrr"/>
        <phase duration="17" state="rrrrrrrrrrGGrrrrrrGG" name="Main_LEFT"/>
        <phase duration="6"  state="rrrrrrrrrryyrrrrrryy"/>
        <phase duration="17" state="rrrrrrrrrrrrrrrrGGGG" name="Hotel"/>
        <phase duration="2"  state="rrrrrrrrrrrrrrrryyyy"/>
        <phase duration="17" state="rrrrrrrGGGGGrrrrrrrr" name="Cafe"/>
        <phase duration="2"  state="rrrrrrryyyyyrrrrrrrr"/>
    </tlLogic>

    <junction id="E_0" type="dead_end" x="-165.00" y="-5.00" incLanes="" intLanes="" shape="-165.00,-1.80 -165.00,-8.20"/>
    <junction id="E_3" type="dead_end" x="165.00" y="-5.00" incLanes="E_2_0" intLanes="" shape="165.00,-6.60 165.00,-3.40"/>
    <junction id="N_0" type="dead_end" x="5.00" y="-165.00" incLanes="" intLanes="" shape="0.20,-165.00 9.80,-165.00"/>
    <junction id="N_3" type="dead_end" x="5.00" y="165.00" incLanes="N_2_0" intLanes="" shape="6.60,165.00 3.40,165.00"/>
    <junction id="S_0" type="dead_end" x="-5.00" y="165.00" incLanes="" intLanes="" shape="-0.20,165.00 -9.80,165.00"/>
    <junction id="S_3" type="dead_end" x="-5.00" y="-165.00" incLanes="S_2_0" intLanes="" shape="-6.60,-165.00 -3.40,-165.00"/>
    <junction id="W_0" type="dead_end" x="165.00" y="5.00" incLanes="" intLanes="" shape="165.00,3.40 165.00,6.60"/>
    <junction id="W_3" type="dead_end" x="-165.00" y="5.00" incLanes="W_2_0" intLanes="" shape="-165.00,6.60 -165.00,3.40"/>
    <junction id="intersection" type="traffic_light" x="0.00" y="0.00" incLanes="S_1_0 S_1_1 S_1_2 W_1_0 N_1_0 N_1_1 N_1_2 E_1_0 E_1_1" intLanes=":intersection_0_0 :intersection_1_0 :intersection_2_0 :intersection_3_0 :intersection_4_0 :intersection_5_0 :intersection_6_0 :intersection_7_0 :intersection_12_0 :intersection_9_0 :intersection_10_0 :intersection_11_0" shape="-9.80,15.00 6.60,15.00 6.83,12.43 7.53,10.33 8.70,8.70 10.33,7.53 12.43,6.83 15.00,6.60 15.00,-6.60 12.11,-7.53 11.10,-8.70 10.38,-10.33 9.94,-12.43 9.80,-15.00 -6.60,-15.00 -6.83,-12.92 -7.53,-11.22 -8.70,-9.90 -10.33,-8.96 -12.43,-8.39 -15.00,-8.20 -15.00,6.60 -12.11,7.53 -11.10,8.70 -10.38,10.33 -9.94,12.43" fringe="inner">
        <request index="0"  response="000000000000" foes="000100010000" cont="0"/>
        <request index="1"  response="000000000000" foes="111100110000" cont="0"/>
        <request index="2"  response="000011000000" foes="110011110000" cont="0"/>
        <request index="3"  response="000010000000" foes="100010000000" cont="0"/>
        <request index="4"  response="000110000111" foes="100110000111" cont="0"/>
        <request index="5"  response="011110000110" foes="011110000110" cont="0"/>
        <request index="6"  response="000000000000" foes="010000000100" cont="0"/>
        <request index="7"  response="000000000000" foes="110000111100" cont="0"/>
        <request index="8"  response="000000000011" foes="110000110011" cont="1"/>
        <request index="9"  response="000000000010" foes="000000100010" cont="0"/>
        <request index="10" response="000111000110" foes="000111100110" cont="0"/>
        <request index="11" response="000110011110" foes="000110011110" cont="0"/>
    </junction>

    <junction id=":intersection_12_0" type="internal" x="-2.32" y="-0.16" incLanes=":intersection_8_0 S_1_0 S_1_1" intLanes=":intersection_0_0 :intersection_1_0 :intersection_4_0 :intersection_5_0 :intersection_10_0 :intersection_11_0"/>

    <connection from="E_1" to="S_2" fromLane="0" toLane="0" via=":intersection_9_0" tl="intersection" linkIndex="6" dir="r" state="o"/>
    <connection from="E_1" to="E_2" fromLane="1" toLane="0" via=":intersection_10_0" tl="intersection" linkIndex="7" dir="s" state="o"/>
    <connection from="E_1" to="N_2" fromLane="1" toLane="0" via=":intersection_11_0" tl="intersection" linkIndex="7" dir="l" state="o"/>
    <connection from="N_1" to="E_2" fromLane="0" toLane="0" via=":intersection_6_0" tl="intersection" linkIndex="0" dir="r" state="O"/>
    <connection from="N_1" to="N_2" fromLane="1" toLane="0" via=":intersection_7_0" tl="intersection" linkIndex="1" dir="s" state="O"/>
    <connection from="N_1" to="W_2" fromLane="2" toLane="0" via=":intersection_8_0" tl="intersection" linkIndex="2" dir="l" state="o"/>
    <connection from="S_1" to="W_2" fromLane="0" toLane="0" via=":intersection_0_0" tl="intersection" linkIndex="3" dir="r" state="O"/>
    <connection from="S_1" to="S_2" fromLane="1" toLane="0" via=":intersection_1_0" tl="intersection" linkIndex="4" dir="s" state="O"/>
    <connection from="S_1" to="E_2" fromLane="2" toLane="0" via=":intersection_2_0" tl="intersection" linkIndex="5" dir="l" state="o"/>
    <connection from="W_1" to="N_2" fromLane="0" toLane="0" via=":intersection_3_0" tl="intersection" linkIndex="8" dir="r" state="o"/>
    <connection from="W_1" to="W_2" fromLane="0" toLane="0" via=":intersection_4_0" tl="intersection" linkIndex="8" dir="s" state="o"/>
    <connection from="W_1" to="S_2" fromLane="0" toLane="0" via=":intersection_5_0" tl="intersection" linkIndex="8" dir="l" state="o"/>

    <connection from=":intersection_0" to="W_2" fromLane="0" toLane="0" dir="r" state="M"/>
    <connection from=":intersection_1" to="S_2" fromLane="0" toLane="0" dir="s" state="M"/>
    <connection from=":intersection_2" to="E_2" fromLane="0" toLane="0" dir="l" state="M"/>
    <connection from=":intersection_3" to="N_2" fromLane="0" toLane="0" dir="r" state="M"/>
    <connection from=":intersection_4" to="W_2" fromLane="0" toLane="0" dir="s" state="M"/>
    <connection from=":intersection_5" to="S_2" fromLane="0" toLane="0" dir="l" state="M"/>
    <connection from=":intersection_6" to="E_2" fromLane="0" toLane="0" dir="r" state="M"/>
    <connection from=":intersection_7" to="N_2" fromLane="0" toLane="0" dir="s" state="M"/>
    <connection from=":intersection_8" to="W_2" fromLane="0" toLane="0" via=":intersection_12_0" dir="l" state="m"/>
    <connection from=":intersection_12" to="W_2" fromLane="0" toLane="0" dir="l" state="M"/>
    <connection from=":intersection_9" to="S_2" fromLane="0" toLane="0" dir="r" state="M"/>
    <connection from=":intersection_10" to="E_2" fromLane="0" toLane="0" dir="s" state="M"/>
    <connection from=":intersection_11" to="N_2" fromLane="0" toLane="0" dir="l" state="M"/>

</net>
